data_cif

_audit_creation_method             'generated by GULP'

_symmetry_space_group_name_H-M     '(unknown)       '
_symmetry_Int_Tables_number        1

loop_
_symmetry_equiv_pos_site_id
_symmetry_equiv_pos_as_xyz
_cell_length_a                        9.1768
_cell_length_b                        9.8929
_cell_length_c                        8.7020
_cell_angle_alpha                   89.8953
_cell_angle_beta                    90.0222
_cell_angle_gamma                   90.4783

loop_
_atom_site_label
_atom_site_fract_x
_atom_site_fract_y
_atom_site_fract_z
_atom_site_occupancy
  Tc          0.33862      0.25790      0.90830  1.0000
  Tc          0.82911      0.01227      0.91523  1.0000
  Tc          0.62470      0.75133      0.40674  1.0000
  Tc          0.33854      0.76528      0.57703  1.0000
  Tc          0.34730      0.26564      0.24654  1.0000
  Tc          0.62884      0.24956      0.41467  1.0000
  Tc          0.83348      0.51154      0.57295  1.0000
  Tc          0.33792      0.76728      0.90583  1.0000
  Tc          0.12423      0.02263      0.41190  1.0000
  Tc          0.83236      0.00516      0.24879  1.0000
  Tc          0.83352      0.51377      0.90564  1.0000
  Tc          0.34291      0.26502      0.57250  1.0000
  Mn          0.12019      0.52411      0.40502  1.0000
  Mn          0.61947      0.74616      0.07741  1.0000
  Mn          0.62640      0.75285      0.74643  1.0000
  Mn          0.83597      0.00562      0.58172  1.0000
  Mn          0.62825      0.25164      0.07378  1.0000
  Mn          0.12193      0.01886      0.07439  1.0000
  Mn          0.11709      0.02547      0.74544  1.0000
  Mn          0.62287      0.24998      0.74468  1.0000
  Mn          0.83950      0.50410      0.23882  1.0000
  Mn          0.12066      0.52529      0.07533  1.0000
  Mn          0.33432      0.76174      0.23839  1.0000
  Mn          0.12240      0.52527      0.74071  1.0000
  Li          0.00605      0.27542      0.24017  1.0000
  Li          0.46071      0.02133      0.07954  1.0000
  Li          0.51079      0.49112      0.25239  1.0000
  Li          0.49189      0.48841      0.91404  1.0000
  Li          0.00610      0.78699      0.57432  1.0000
  Li          0.00564      0.78385      0.22666  1.0000
  Li          0.99209      0.28006      0.59312  1.0000
  Li          0.99974      0.28295      0.90571  1.0000
  Li          0.44576      0.02468      0.39839  1.0000
  Li          0.47657      0.01656      0.71972  1.0000
  Li          0.99734      0.78762      0.91232  1.0000
  Li          0.51063      0.49217      0.58683  1.0000
  O           0.03120      0.10460      0.23865  1.0000
  O           0.45290      0.35549      0.07336  1.0000
  O           0.53571      0.15750      0.23570  1.0000
  O           0.94412      0.42021      0.07738  1.0000
  O           0.26739      0.14626      0.07867  1.0000
  O           0.19585      0.42010      0.23963  1.0000
  O           0.76323      0.11978      0.08054  1.0000
  O           0.71260      0.35866      0.22926  1.0000
  O           0.01683      0.61059      0.24088  1.0000
  O           0.43876      0.84752      0.07863  1.0000
  O           0.51095      0.66237      0.23624  1.0000
  O           0.94694      0.91432      0.07544  1.0000
  O           0.25092      0.66248      0.08289  1.0000
  O           0.19909      0.90241      0.22815  1.0000
  O           0.75089      0.60520      0.08791  1.0000
  O           0.70292      0.84922      0.22831  1.0000
  O           0.01531      0.11183      0.58348  1.0000
  O           0.44837      0.36264      0.40884  1.0000
  O           0.52264      0.15651      0.58680  1.0000
  O           0.94537      0.41385      0.39954  1.0000
  O           0.27473      0.15378      0.40861  1.0000
  O           0.19633      0.42253      0.57167  1.0000
  O           0.75675      0.09929      0.42203  1.0000
  O           0.70317      0.35737      0.59309  1.0000
  O           0.03045      0.61313      0.57075  1.0000
  O           0.42528      0.85132      0.40076  1.0000
  O           0.53443      0.66613      0.58081  1.0000
  O           0.93189      0.90984      0.42239  1.0000
  O           0.24930      0.66407      0.39603  1.0000
  O           0.19762      0.91612      0.59558  1.0000
  O           0.74546      0.58955      0.39545  1.0000
  O           0.70547      0.86220      0.59296  1.0000
  O           0.02807      0.11323      0.91320  1.0000
  O           0.44848      0.35811      0.74829  1.0000
  O           0.53482      0.15238      0.90965  1.0000
  O           0.95042      0.41976      0.74324  1.0000
  O           0.25159      0.16064      0.74002  1.0000
  O           0.19783      0.42081      0.91221  1.0000
  O           0.75608      0.11172      0.73444  1.0000
  O           0.70813      0.34797      0.90684  1.0000
  O           0.03158      0.61493      0.90867  1.0000
  O           0.44891      0.84900      0.74477  1.0000
  O           0.53171      0.65837      0.90995  1.0000
  O           0.93907      0.91954      0.74318  1.0000
  O           0.26100      0.65356      0.74192  1.0000
  O           0.19384      0.91903      0.90625  1.0000
  O           0.76089      0.61926      0.74037  1.0000
  O           0.70590      0.84404      0.91668  1.0000
