data_cif

_audit_creation_method             'generated by GULP'

_symmetry_space_group_name_H-M     '(unknown)       '
_symmetry_Int_Tables_number        1

loop_
_symmetry_equiv_pos_site_id
_symmetry_equiv_pos_as_xyz
_cell_length_a                        9.2131
_cell_length_b                        9.8907
_cell_length_c                        8.7023
_cell_angle_alpha                   89.9229
_cell_angle_beta                    90.4565
_cell_angle_gamma                   90.5039

loop_
_atom_site_label
_atom_site_fract_x
_atom_site_fract_y
_atom_site_fract_z
_atom_site_occupancy
  Tc          0.34758      0.73760      0.26166  1.0000
  Tc          0.35230      0.24661      0.93208  1.0000
  Tc          0.84926      0.98292      0.60116  1.0000
  Tc          0.84161      0.98054      0.26702  1.0000
  Tc          0.34761      0.74755      0.93761  1.0000
  Tc          0.62957      0.72288      0.10108  1.0000
  Tc          0.84348      0.47885      0.26600  1.0000
  Tc          0.35020      0.23147      0.26355  1.0000
  Tc          0.13776      0.00566      0.76652  1.0000
  Tc          0.84578      0.48539      0.59723  1.0000
  Tc          0.34971      0.23812      0.60272  1.0000
  Tc          0.63214      0.22419      0.10149  1.0000
  Mn          0.13320      0.99373      0.42931  1.0000
  Mn          0.13068      0.50566      0.76320  1.0000
  Mn          0.13235      0.50209      0.09840  1.0000
  Mn          0.62890      0.71864      0.43572  1.0000
  Mn          0.63204      0.72785      0.76521  1.0000
  Mn          0.63458      0.22028      0.43499  1.0000
  Mn          0.84964      0.98424      0.93139  1.0000
  Mn          0.13148      0.49968      0.43373  1.0000
  Mn          0.12881      0.99989      0.09941  1.0000
  Mn          0.63922      0.22892      0.76584  1.0000
  Mn          0.34502      0.73874      0.59743  1.0000
  Mn          0.85191      0.48520      0.92988  1.0000
  Li          0.01676      0.76573      0.93200  1.0000
  Li          0.52235      0.96226      0.26299  1.0000
  Li          0.51120      0.45967      0.59488  1.0000
  Li          0.01871      0.25162      0.57868  1.0000
  Li          0.50677      0.46000      0.26557  1.0000
  Li          0.50909      0.96648      0.59740  1.0000
  Li          0.02298      0.75966      0.58273  1.0000
  Li          0.54046      0.97502      0.93899  1.0000
  Li          0.02689      0.25588      0.26827  1.0000
  Li          0.01204      0.25666      0.93113  1.0000
  Li          0.01732      0.76049      0.26726  1.0000
  Li          0.53194      0.47102      0.91093  1.0000
  O           0.03494      0.08308      0.26556  1.0000
  O           0.45122      0.33230      0.10410  1.0000
  O           0.53878      0.13059      0.27385  1.0000
  O           0.95949      0.39290      0.08861  1.0000
  O           0.25674      0.13951      0.09456  1.0000
  O           0.20787      0.39689      0.26676  1.0000
  O           0.75129      0.06071      0.09010  1.0000
  O           0.71708      0.32476      0.28099  1.0000
  O           0.04006      0.58767      0.26598  1.0000
  O           0.45225      0.83355      0.10307  1.0000
  O           0.53426      0.63090      0.27300  1.0000
  O           0.95078      0.88669      0.09074  1.0000
  O           0.26387      0.63590      0.09712  1.0000
  O           0.20460      0.89329      0.26244  1.0000
  O           0.76430      0.56973      0.08963  1.0000
  O           0.70564      0.82837      0.28457  1.0000
  O           0.04024      0.08041      0.59052  1.0000
  O           0.46106      0.32748      0.43397  1.0000
  O           0.54518      0.13413      0.60481  1.0000
  O           0.96098      0.39098      0.43243  1.0000
  O           0.26350      0.13182      0.43574  1.0000
  O           0.20738      0.39817      0.60158  1.0000
  O           0.76747      0.08610      0.43435  1.0000
  O           0.71944      0.32137      0.59806  1.0000
  O           0.03408      0.58782      0.59670  1.0000
  O           0.45196      0.82439      0.44061  1.0000
  O           0.53031      0.63396      0.60480  1.0000
  O           0.96042      0.88542      0.43283  1.0000
  O           0.26647      0.63504      0.44262  1.0000
  O           0.21461      0.88197      0.58666  1.0000
  O           0.76151      0.58496      0.43430  1.0000
  O           0.71029      0.82093      0.59859  1.0000
  O           0.02395      0.08845      0.94260  1.0000
  O           0.46918      0.33975      0.76242  1.0000
  O           0.53880      0.14578      0.92397  1.0000
  O           0.95564      0.39928      0.77122  1.0000
  O           0.25990      0.15453      0.76824  1.0000
  O           0.21361      0.40956      0.92834  1.0000
  O           0.77408      0.09335      0.77833  1.0000
  O           0.72257      0.34053      0.92051  1.0000
  O           0.03247      0.59202      0.93114  1.0000
  O           0.44831      0.83241      0.75335  1.0000
  O           0.53280      0.64504      0.92379  1.0000
  O           0.94490      0.89460      0.77220  1.0000
  O           0.25580      0.64944      0.75664  1.0000
  O           0.20646      0.89526      0.94481  1.0000
  O           0.76447      0.58783      0.77749  1.0000
  O           0.70590      0.84404      0.91668  1.0000
