data_image0
_chemical_formula_structural       Si3O6
_chemical_formula_sum              "Si3 O6"
_cell_length_a       4.913331619998891
_cell_length_b       4.913331619998798
_cell_length_c       5.419701826957259
_cell_angle_alpha    89.99999999934812
_cell_angle_beta     90.00000000065474
_cell_angle_gamma    120.00000006562514

_space_group_name_H-M_alt    "P 1"
_space_group_IT_number       1

loop_
  _space_group_symop_operation_xyz
  'x, y, z'

loop_
  _atom_site_type_symbol
  _atom_site_label
  _atom_site_symmetry_multiplicity
  _atom_site_fract_x
  _atom_site_fract_y
  _atom_site_fract_z
  _atom_site_occupancy
  Si  Si1       1.0  2.6698843769603833e-09  0.4656488976673794  0.33333333756371497  1.0000
  Si  Si2       1.0  0.5343511037681025  0.5343511037681077  3.7274438720803175e-15  1.0000
  Si  Si3       1.0  0.4656488976673932  2.6698840817506246e-09  0.6666666624362696  1.0000
  O   O1        1.0  0.1356113251535341  0.7252228081163357  0.5540555932302172  1.0000
  O   O2        1.0  0.5896114798101927  0.8643886733029859  0.8873889203611546  1.0000
  O   O3        1.0  0.27477719343165935  0.4103885160798517  0.22072226024394098  1.0000
  O   O4        1.0  0.41038851607991905  0.2747771934317053  0.7792777397560258  1.0000
  O   O5        1.0  0.8643886733029897  0.5896114798102549  0.11261107963888091  1.0000
  O   O6        1.0  0.7252228081163432  0.13561132515353677  0.445944406769783  1.0000
