# generated using pymatgen
data_NaMnFe5(PO4)6
_symmetry_space_group_name_H-M   'P 1'
_cell_length_a   31.04399872
_cell_length_b   18.05430031
_cell_length_c   9.39935970
_cell_angle_alpha   90.00000000
_cell_angle_beta   90.00000000
_cell_angle_gamma   90.00000000
_symmetry_Int_Tables_number   1
_chemical_formula_structural   NaMnFe5(PO4)6
_chemical_formula_sum   'Na12 Mn12 Fe60 P72 O288'
_cell_volume   5268.13127878
_cell_formula_units_Z   12
loop_
 _symmetry_equiv_pos_site_id
 _symmetry_equiv_pos_as_xyz
  1  'x, y, z'
loop_
 _atom_site_type_symbol
 _atom_site_label
 _atom_site_symmetry_multiplicity
 _atom_site_fract_x
 _atom_site_fract_y
 _atom_site_fract_z
 _atom_site_occupancy
  Na  Na0  1  0.00000000  0.16666943  0.00000000  1
  Na  Na1  1  0.00000000  0.00000000  0.50000214  1
  Na  Na2  1  0.16666667  0.33333333  0.74999790  1
  Na  Na3  1  0.16666667  0.83333055  0.74999790  1
  Na  Na4  1  0.33333335  0.16666943  0.00000000  1
  Na  Na5  1  0.50000002  0.00000000  0.74999790  1
  Na  Na6  1  0.83333337  0.16666943  0.74999790  1
  Na  Na7  1  0.83333337  0.50000276  0.24999575  1
  Na  Na8  1  0.33333335  0.33333333  0.50000214  1
  Na  Na9  1  0.50000002  0.33333333  0.74999790  1
  Na  Na10  1  0.66666669  0.83333055  0.00000000  1
  Na  Na11  1  0.50000002  0.66666666  0.74999790  1
  Fe  Fe12  1  0.09399884  0.08333195  0.48689487  1
  Fe  Fe13  1  0.90600120  0.91666804  0.51309878  1
  Fe  Fe14  1  0.07266783  0.91666804  0.73690126  1
  Fe  Fe15  1  0.26066552  0.08333195  0.76310517  1
  Fe  Fe16  1  0.90600120  0.25000138  0.51309878  1
  Fe  Fe17  1  0.07266783  0.25000138  0.73690126  1
  Fe  Fe18  1  0.09399884  0.08333195  0.98689701  1
  Fe  Fe19  1  0.90600120  0.91666804  0.01309664  1
  Mn  Mn20  1  0.07266783  0.91666804  0.23689912  1
  Fe  Fe21  1  0.26066552  0.08333195  0.26310303  1
  Mn  Mn22  1  0.90600120  0.25000138  0.01309664  1
  Fe  Fe23  1  0.07266783  0.25000138  0.23689912  1
  Fe  Fe24  1  0.09399884  0.41666527  0.48689487  1
  Fe  Fe25  1  0.90600120  0.58333471  0.51309878  1
  Mn  Mn26  1  0.07266783  0.58333471  0.73690126  1
  Fe  Fe27  1  0.26066552  0.41666527  0.76310517  1
  Fe  Fe28  1  0.09399884  0.74999860  0.48689487  1
  Mn  Mn29  1  0.26066552  0.74999860  0.76310517  1
  Fe  Fe30  1  0.09399884  0.41666527  0.98689701  1
  Fe  Fe31  1  0.90600120  0.58333471  0.01309664  1
  Fe  Fe32  1  0.07266783  0.58333471  0.23689912  1
  Fe  Fe33  1  0.26066552  0.41666527  0.26310303  1
  Fe  Fe34  1  0.09399884  0.74999860  0.98689701  1
  Fe  Fe35  1  0.26066552  0.74999860  0.26310303  1
  Fe  Fe36  1  0.42733219  0.08333195  0.48689487  1
  Mn  Mn37  1  0.57266785  0.91666804  0.51309878  1
  Fe  Fe38  1  0.73933452  0.91666804  0.73690126  1
  Fe  Fe39  1  0.59399886  0.08333195  0.76310517  1
  Fe  Fe40  1  0.57266785  0.25000138  0.51309878  1
  Mn  Mn41  1  0.73933452  0.25000138  0.73690126  1
  Fe  Fe42  1  0.42733219  0.08333195  0.98689701  1
  Fe  Fe43  1  0.57266785  0.91666804  0.01309664  1
  Fe  Fe44  1  0.73933452  0.91666804  0.23689912  1
  Fe  Fe45  1  0.59399886  0.08333195  0.26310303  1
  Fe  Fe46  1  0.57266785  0.25000138  0.01309664  1
  Fe  Fe47  1  0.73933452  0.25000138  0.23689912  1
  Fe  Fe48  1  0.42733219  0.41666527  0.48689487  1
  Fe  Fe49  1  0.57266785  0.58333471  0.51309878  1
  Mn  Mn50  1  0.73933452  0.58333471  0.73690126  1
  Fe  Fe51  1  0.59399886  0.41666527  0.76310517  1
  Fe  Fe52  1  0.42733219  0.74999860  0.48689487  1
  Fe  Fe53  1  0.59399886  0.74999860  0.76310517  1
  Fe  Fe54  1  0.42733219  0.41666527  0.98689701  1
  Fe  Fe55  1  0.57266785  0.58333471  0.01309664  1
  Mn  Mn56  1  0.73933452  0.58333471  0.23689912  1
  Fe  Fe57  1  0.59399886  0.41666527  0.26310303  1
  Fe  Fe58  1  0.42733219  0.74999860  0.98689701  1
  Fe  Fe59  1  0.59399886  0.74999860  0.26310303  1
  Fe  Fe60  1  0.76066554  0.08333195  0.48689487  1
  Fe  Fe61  1  0.23933450  0.91666804  0.51309878  1
  Fe  Fe62  1  0.40600118  0.91666804  0.73690126  1
  Fe  Fe63  1  0.92733221  0.08333195  0.76310517  1
  Fe  Fe64  1  0.23933450  0.25000138  0.51309878  1
  Mn  Mn65  1  0.40600118  0.25000138  0.73690126  1
  Fe  Fe66  1  0.76066554  0.08333195  0.98689701  1
  Fe  Fe67  1  0.23933450  0.91666804  0.01309664  1
  Fe  Fe68  1  0.40600118  0.91666804  0.23689912  1
  Mn  Mn69  1  0.92733221  0.08333195  0.26310303  1
  Fe  Fe70  1  0.23933450  0.25000138  0.01309664  1
  Fe  Fe71  1  0.40600118  0.25000138  0.23689912  1
  Fe  Fe72  1  0.76066554  0.41666527  0.48689487  1
  Fe  Fe73  1  0.23933450  0.58333471  0.51309878  1
  Mn  Mn74  1  0.40600118  0.58333471  0.73690126  1
  Fe  Fe75  1  0.92733221  0.41666527  0.76310517  1
  Fe  Fe76  1  0.76066554  0.74999860  0.48689487  1
  Fe  Fe77  1  0.92733221  0.74999860  0.76310517  1
  Fe  Fe78  1  0.76066554  0.41666527  0.98689701  1
  Fe  Fe79  1  0.23933450  0.58333471  0.01309664  1
  Fe  Fe80  1  0.40600118  0.58333471  0.23689912  1
  Fe  Fe81  1  0.92733221  0.41666527  0.26310303  1
  Mn  Mn82  1  0.76066554  0.74999860  0.98689701  1
  Fe  Fe83  1  0.92733221  0.74999860  0.26310303  1
  P  P84  1  0.03153266  0.08333195  0.20909935  1
  P  P85  1  0.96846738  0.91666804  0.79090494  1
  P  P86  1  0.13513401  0.91666804  0.45909510  1
  P  P87  1  0.19819934  0.08333195  0.04089640  1
  P  P88  1  0.96846738  0.25000138  0.79090494  1
  P  P89  1  0.13513401  0.25000138  0.45909510  1
  P  P90  1  0.03153266  0.08333195  0.70910149  1
  P  P91  1  0.96846738  0.91666804  0.29090279  1
  P  P92  1  0.13513401  0.91666804  0.95909725  1
  P  P93  1  0.19819934  0.08333195  0.54089855  1
  P  P94  1  0.96846738  0.25000138  0.29090279  1
  P  P95  1  0.13513401  0.25000138  0.95909725  1
  P  P96  1  0.03153266  0.41666527  0.20909935  1
  P  P97  1  0.96846738  0.58333471  0.79090494  1
  P  P98  1  0.13513401  0.58333471  0.45909510  1
  P  P99  1  0.19819934  0.41666527  0.04089640  1
  P  P100  1  0.03153266  0.74999860  0.20909935  1
  P  P101  1  0.19819934  0.74999860  0.04089640  1
  P  P102  1  0.03153266  0.41666527  0.70910149  1
  P  P103  1  0.96846738  0.58333471  0.29090279  1
  P  P104  1  0.13513401  0.58333471  0.95909725  1
  P  P105  1  0.19819934  0.41666527  0.54089855  1
  P  P106  1  0.03153266  0.74999860  0.70910149  1
  P  P107  1  0.19819934  0.74999860  0.54089855  1
  P  P108  1  0.36486601  0.08333195  0.20909935  1
  P  P109  1  0.63513403  0.91666804  0.79090494  1
  P  P110  1  0.80180070  0.91666804  0.45909510  1
  P  P111  1  0.53153269  0.08333195  0.04089640  1
  P  P112  1  0.63513403  0.25000138  0.79090494  1
  P  P113  1  0.80180070  0.25000138  0.45909510  1
  P  P114  1  0.36486601  0.08333195  0.70910149  1
  P  P115  1  0.63513403  0.91666804  0.29090279  1
  P  P116  1  0.80180070  0.91666804  0.95909725  1
  P  P117  1  0.53153269  0.08333195  0.54089855  1
  P  P118  1  0.63513403  0.25000138  0.29090279  1
  P  P119  1  0.80180070  0.25000138  0.95909725  1
  P  P120  1  0.36486601  0.41666527  0.20909935  1
  P  P121  1  0.63513403  0.58333471  0.79090494  1
  P  P122  1  0.80180070  0.58333471  0.45909510  1
  P  P123  1  0.53153269  0.41666527  0.04089640  1
  P  P124  1  0.36486601  0.74999860  0.20909935  1
  P  P125  1  0.53153269  0.74999860  0.04089640  1
  P  P126  1  0.36486601  0.41666527  0.70910149  1
  P  P127  1  0.63513403  0.58333471  0.29090279  1
  P  P128  1  0.80180070  0.58333471  0.95909725  1
  P  P129  1  0.53153269  0.41666527  0.54089855  1
  P  P130  1  0.36486601  0.74999860  0.70910149  1
  P  P131  1  0.53153269  0.74999860  0.54089855  1
  P  P132  1  0.69819936  0.08333195  0.20909935  1
  P  P133  1  0.30180068  0.91666804  0.79090494  1
  P  P134  1  0.46846736  0.91666804  0.45909510  1
  P  P135  1  0.86486603  0.08333195  0.04089640  1
  P  P136  1  0.30180068  0.25000138  0.79090494  1
  P  P137  1  0.46846736  0.25000138  0.45909510  1
  P  P138  1  0.69819936  0.08333195  0.70910149  1
  P  P139  1  0.30180068  0.91666804  0.29090279  1
  P  P140  1  0.46846736  0.91666804  0.95909725  1
  P  P141  1  0.86486603  0.08333195  0.54089855  1
  P  P142  1  0.30180068  0.25000138  0.29090279  1
  P  P143  1  0.46846736  0.25000138  0.95909725  1
  P  P144  1  0.69819936  0.41666527  0.20909935  1
  P  P145  1  0.30180068  0.58333471  0.79090494  1
  P  P146  1  0.46846736  0.58333471  0.45909510  1
  P  P147  1  0.86486603  0.41666527  0.04089640  1
  P  P148  1  0.69819936  0.74999860  0.20909935  1
  P  P149  1  0.86486603  0.74999860  0.04089640  1
  P  P150  1  0.69819936  0.41666527  0.70910149  1
  P  P151  1  0.30180068  0.58333471  0.29090279  1
  P  P152  1  0.46846736  0.58333471  0.95909725  1
  P  P153  1  0.86486603  0.41666527  0.54089855  1
  P  P154  1  0.69819936  0.74999860  0.70910149  1
  P  P155  1  0.86486603  0.74999860  0.54089855  1
  O  O156  1  0.03243461  0.08333195  0.36969540  1
  O  O157  1  0.96756543  0.91666804  0.63029825  1
  O  O158  1  0.13423528  0.91666804  0.61970179  1
  O  O159  1  0.19910128  0.08333195  0.88030464  1
  O  O160  1  0.96756543  0.25000138  0.63029825  1
  O  O161  1  0.13423528  0.25000138  0.61970179  1
  O  O162  1  0.03243461  0.08333195  0.86969754  1
  O  O163  1  0.96756543  0.91666804  0.13029611  1
  O  O164  1  0.13423528  0.91666804  0.11969964  1
  O  O165  1  0.19910128  0.08333195  0.38030250  1
  O  O166  1  0.96756543  0.25000138  0.13029611  1
  O  O167  1  0.13423528  0.25000138  0.11969964  1
  O  O168  1  0.03243461  0.41666527  0.36969540  1
  O  O169  1  0.96756543  0.58333471  0.63029825  1
  O  O170  1  0.13423528  0.58333471  0.61970179  1
  O  O171  1  0.19910128  0.41666527  0.88030464  1
  O  O172  1  0.03243461  0.74999860  0.36969540  1
  O  O173  1  0.19910128  0.74999860  0.88030464  1
  O  O174  1  0.03243461  0.41666527  0.86969754  1
  O  O175  1  0.96756543  0.58333471  0.13029611  1
  O  O176  1  0.13423528  0.58333471  0.11969964  1
  O  O177  1  0.19910128  0.41666527  0.38030250  1
  O  O178  1  0.03243461  0.74999860  0.86969754  1
  O  O179  1  0.19910128  0.74999860  0.38030250  1
  O  O180  1  0.36576474  0.08333195  0.36969540  1
  O  O181  1  0.63423208  0.91666804  0.63029825  1
  O  O182  1  0.80089876  0.91666804  0.61970179  1
  O  O183  1  0.53243141  0.08333195  0.88030464  1
  O  O184  1  0.63423208  0.25000138  0.63029825  1
  O  O185  1  0.80089876  0.25000138  0.61970179  1
  O  O186  1  0.36576474  0.08333195  0.86969754  1
  O  O187  1  0.63423208  0.91666804  0.13029611  1
  O  O188  1  0.80089876  0.91666804  0.11969964  1
  O  O189  1  0.53243141  0.08333195  0.38030250  1
  O  O190  1  0.63423208  0.25000138  0.13029611  1
  O  O191  1  0.80089876  0.25000138  0.11969964  1
  O  O192  1  0.36576474  0.41666527  0.36969540  1
  O  O193  1  0.63423208  0.58333471  0.63029825  1
  O  O194  1  0.80089876  0.58333471  0.61970179  1
  O  O195  1  0.53243141  0.41666527  0.88030464  1
  O  O196  1  0.36576474  0.74999860  0.36969540  1
  O  O197  1  0.53243141  0.74999860  0.88030464  1
  O  O198  1  0.36576474  0.41666527  0.86969754  1
  O  O199  1  0.63423208  0.58333471  0.13029611  1
  O  O200  1  0.80089876  0.58333471  0.11969964  1
  O  O201  1  0.53243141  0.41666527  0.38030250  1
  O  O202  1  0.36576474  0.74999860  0.86969754  1
  O  O203  1  0.53243141  0.74999860  0.38030250  1
  O  O204  1  0.69909808  0.08333195  0.36969540  1
  O  O205  1  0.30089874  0.91666804  0.63029825  1
  O  O206  1  0.46756541  0.91666804  0.61970179  1
  O  O207  1  0.86576476  0.08333195  0.88030464  1
  O  O208  1  0.30089874  0.25000138  0.63029825  1
  O  O209  1  0.46756541  0.25000138  0.61970179  1
  O  O210  1  0.69909808  0.08333195  0.86969754  1
  O  O211  1  0.30089874  0.91666804  0.13029611  1
  O  O212  1  0.46756541  0.91666804  0.11969964  1
  O  O213  1  0.86576476  0.08333195  0.38030250  1
  O  O214  1  0.30089874  0.25000138  0.13029611  1
  O  O215  1  0.46756541  0.25000138  0.11969964  1
  O  O216  1  0.69909808  0.41666527  0.36969540  1
  O  O217  1  0.30089874  0.58333471  0.63029825  1
  O  O218  1  0.46756541  0.58333471  0.61970179  1
  O  O219  1  0.86576476  0.41666527  0.88030464  1
  O  O220  1  0.69909808  0.74999860  0.36969540  1
  O  O221  1  0.86576476  0.74999860  0.88030464  1
  O  O222  1  0.69909808  0.41666527  0.86969754  1
  O  O223  1  0.30089874  0.58333471  0.13029611  1
  O  O224  1  0.46756541  0.58333471  0.11969964  1
  O  O225  1  0.86576476  0.41666527  0.38030250  1
  O  O226  1  0.69909808  0.74999860  0.86969754  1
  O  O227  1  0.86576476  0.74999860  0.38030250  1
  O  O228  1  0.15160096  0.08333195  0.10430498  1
  O  O229  1  0.84839908  0.91666804  0.89569931  1
  O  O230  1  0.01506571  0.91666804  0.35430073  1
  O  O231  1  0.31826763  0.08333195  0.14570141  1
  O  O232  1  0.84839908  0.25000138  0.89569931  1
  O  O233  1  0.01506571  0.25000138  0.35430073  1
  O  O234  1  0.15160096  0.08333195  0.60429648  1
  O  O235  1  0.84839908  0.91666804  0.39569717  1
  O  O236  1  0.01506571  0.91666804  0.85430287  1
  O  O237  1  0.31826763  0.08333195  0.64570356  1
  O  O238  1  0.84839908  0.25000138  0.39569717  1
  O  O239  1  0.01506571  0.25000138  0.85430287  1
  O  O240  1  0.15160096  0.41666527  0.10430498  1
  O  O241  1  0.84839908  0.58333471  0.89569931  1
  O  O242  1  0.01506571  0.58333471  0.35430073  1
  O  O243  1  0.31826763  0.41666527  0.14570141  1
  O  O244  1  0.15160096  0.74999860  0.10430498  1
  O  O245  1  0.31826763  0.74999860  0.14570141  1
  O  O246  1  0.15160096  0.41666527  0.60429648  1
  O  O247  1  0.84839908  0.58333471  0.39569717  1
  O  O248  1  0.01506571  0.58333471  0.85430287  1
  O  O249  1  0.31826763  0.41666527  0.64570356  1
  O  O250  1  0.15160096  0.74999860  0.60429648  1
  O  O251  1  0.31826763  0.74999860  0.64570356  1
  O  O252  1  0.48493431  0.08333195  0.10430498  1
  O  O253  1  0.51506573  0.91666804  0.89569931  1
  O  O254  1  0.68173241  0.91666804  0.35430073  1
  O  O255  1  0.65160098  0.08333195  0.14570141  1
  O  O256  1  0.51506573  0.25000138  0.89569931  1
  O  O257  1  0.68173241  0.25000138  0.35430073  1
  O  O258  1  0.48493431  0.08333195  0.60429648  1
  O  O259  1  0.51506573  0.91666804  0.39569717  1
  O  O260  1  0.68173241  0.91666804  0.85430287  1
  O  O261  1  0.65160098  0.08333195  0.64570356  1
  O  O262  1  0.51506573  0.25000138  0.39569717  1
  O  O263  1  0.68173241  0.25000138  0.85430287  1
  O  O264  1  0.48493431  0.41666527  0.10430498  1
  O  O265  1  0.51506573  0.58333471  0.89569931  1
  O  O266  1  0.68173241  0.58333471  0.35430073  1
  O  O267  1  0.65160098  0.41666527  0.14570141  1
  O  O268  1  0.48493431  0.74999860  0.10430498  1
  O  O269  1  0.65160098  0.74999860  0.14570141  1
  O  O270  1  0.48493431  0.41666527  0.60429648  1
  O  O271  1  0.51506573  0.58333471  0.39569717  1
  O  O272  1  0.68173241  0.58333471  0.85430287  1
  O  O273  1  0.65160098  0.41666527  0.64570356  1
  O  O274  1  0.48493431  0.74999860  0.60429648  1
  O  O275  1  0.65160098  0.74999860  0.64570356  1
  O  O276  1  0.81826765  0.08333195  0.10430498  1
  O  O277  1  0.18173239  0.91666804  0.89569931  1
  O  O278  1  0.34839906  0.91666804  0.35430073  1
  O  O279  1  0.98493433  0.08333195  0.14570141  1
  O  O280  1  0.18173239  0.25000138  0.89569931  1
  O  O281  1  0.34839906  0.25000138  0.35430073  1
  O  O282  1  0.81826765  0.08333195  0.60429648  1
  O  O283  1  0.18173239  0.91666804  0.39569717  1
  O  O284  1  0.34839906  0.91666804  0.85430287  1
  O  O285  1  0.98493433  0.08333195  0.64570356  1
  O  O286  1  0.18173239  0.25000138  0.39569717  1
  O  O287  1  0.34839906  0.25000138  0.85430287  1
  O  O288  1  0.81826765  0.41666527  0.10430498  1
  O  O289  1  0.18173239  0.58333471  0.89569931  1
  O  O290  1  0.34839906  0.58333471  0.35430073  1
  O  O291  1  0.98493433  0.41666527  0.14570141  1
  O  O292  1  0.81826765  0.74999860  0.10430498  1
  O  O293  1  0.98493433  0.74999860  0.14570141  1
  O  O294  1  0.81826765  0.41666527  0.60429648  1
  O  O295  1  0.18173239  0.58333471  0.39569717  1
  O  O296  1  0.34839906  0.58333471  0.85430287  1
  O  O297  1  0.98493433  0.41666527  0.64570356  1
  O  O298  1  0.81826765  0.74999860  0.60429648  1
  O  O299  1  0.98493433  0.74999860  0.64570356  1
  O  O300  1  0.05476743  0.01603496  0.14214798  1
  O  O301  1  0.94523261  0.98396502  0.85784567  1
  O  O302  1  0.11189924  0.98396502  0.39215437  1
  O  O303  1  0.22143410  0.01603496  0.10784777  1
  O  O304  1  0.94523261  0.18269886  0.85784567  1
  O  O305  1  0.05476743  0.15063447  0.14214798  1
  O  O306  1  0.22143410  0.15063447  0.10784777  1
  O  O307  1  0.11189924  0.18269886  0.39215437  1
  O  O308  1  0.05476743  0.01603496  0.64215012  1
  O  O309  1  0.94523261  0.98396502  0.35785416  1
  O  O310  1  0.11189924  0.98396502  0.89214588  1
  O  O311  1  0.22143410  0.01603496  0.60784992  1
  O  O312  1  0.94523261  0.18269886  0.35785416  1
  O  O313  1  0.05476743  0.15063447  0.64215012  1
  O  O314  1  0.22143410  0.15063447  0.60784992  1
  O  O315  1  0.11189924  0.18269886  0.89214588  1
  O  O316  1  0.05476743  0.34936829  0.14214798  1
  O  O317  1  0.94523261  0.65063169  0.85784567  1
  O  O318  1  0.11189924  0.65063169  0.39215437  1
  O  O319  1  0.22143410  0.34936829  0.10784777  1
  O  O320  1  0.94523261  0.51603218  0.85784567  1
  O  O321  1  0.05476743  0.81730113  0.14214798  1
  O  O322  1  0.22143410  0.81730113  0.10784777  1
  O  O323  1  0.11189924  0.51603218  0.39215437  1
  O  O324  1  0.05476743  0.34936829  0.64215012  1
  O  O325  1  0.94523261  0.65063169  0.35785416  1
  O  O326  1  0.11189924  0.65063169  0.89214588  1
  O  O327  1  0.22143410  0.34936829  0.60784992  1
  O  O328  1  0.94523261  0.51603218  0.35785416  1
  O  O329  1  0.05476743  0.81730113  0.64215012  1
  O  O330  1  0.22143410  0.81730113  0.60784992  1
  O  O331  1  0.11189924  0.51603218  0.89214588  1
  O  O332  1  0.05476743  0.68270162  0.14214798  1
  O  O333  1  0.94523261  0.31729837  0.85784567  1
  O  O334  1  0.11189924  0.31729837  0.39215437  1
  O  O335  1  0.22143410  0.68270162  0.10784777  1
  O  O336  1  0.94523261  0.84936551  0.85784567  1
  O  O337  1  0.05476743  0.48396780  0.14214798  1
  O  O338  1  0.22143410  0.48396780  0.10784777  1
  O  O339  1  0.11189924  0.84936551  0.39215437  1
  O  O340  1  0.05476743  0.68270162  0.64215012  1
  O  O341  1  0.94523261  0.31729837  0.35785416  1
  O  O342  1  0.11189924  0.31729837  0.89214588  1
  O  O343  1  0.22143410  0.68270162  0.60784992  1
  O  O344  1  0.94523261  0.84936551  0.35785416  1
  O  O345  1  0.05476743  0.48396780  0.64215012  1
  O  O346  1  0.22143410  0.48396780  0.60784992  1
  O  O347  1  0.11189924  0.84936551  0.89214588  1
  O  O348  1  0.38810078  0.01603496  0.14214798  1
  O  O349  1  0.61189927  0.98396502  0.85784567  1
  O  O350  1  0.77856594  0.98396502  0.39215437  1
  O  O351  1  0.55476745  0.01603496  0.10784777  1
  O  O352  1  0.61189927  0.18269886  0.85784567  1
  O  O353  1  0.38810078  0.15063447  0.14214798  1
  O  O354  1  0.55476745  0.15063447  0.10784777  1
  O  O355  1  0.77856594  0.18269886  0.39215437  1
  O  O356  1  0.38810078  0.01603496  0.64215012  1
  O  O357  1  0.61189927  0.98396502  0.35785416  1
  O  O358  1  0.77856594  0.98396502  0.89214588  1
  O  O359  1  0.55476745  0.01603496  0.60784992  1
  O  O360  1  0.61189927  0.18269886  0.35785416  1
  O  O361  1  0.38810078  0.15063447  0.64215012  1
  O  O362  1  0.55476745  0.15063447  0.60784992  1
  O  O363  1  0.77856594  0.18269886  0.89214588  1
  O  O364  1  0.38810078  0.34936829  0.14214798  1
  O  O365  1  0.61189927  0.65063169  0.85784567  1
  O  O366  1  0.77856594  0.65063169  0.39215437  1
  O  O367  1  0.55476745  0.34936829  0.10784777  1
  O  O368  1  0.61189927  0.51603218  0.85784567  1
  O  O369  1  0.38810078  0.81730113  0.14214798  1
  O  O370  1  0.55476745  0.81730113  0.10784777  1
  O  O371  1  0.77856594  0.51603218  0.39215437  1
  O  O372  1  0.38810078  0.34936829  0.64215012  1
  O  O373  1  0.61189927  0.65063169  0.35785416  1
  O  O374  1  0.77856594  0.65063169  0.89214588  1
  O  O375  1  0.55476745  0.34936829  0.60784992  1
  O  O376  1  0.61189927  0.51603218  0.35785416  1
  O  O377  1  0.38810078  0.81730113  0.64215012  1
  O  O378  1  0.55476745  0.81730113  0.60784992  1
  O  O379  1  0.77856594  0.51603218  0.89214588  1
  O  O380  1  0.38810078  0.68270162  0.14214798  1
  O  O381  1  0.61189927  0.31729837  0.85784567  1
  O  O382  1  0.77856594  0.31729837  0.39215437  1
  O  O383  1  0.55476745  0.68270162  0.10784777  1
  O  O384  1  0.61189927  0.84936551  0.85784567  1
  O  O385  1  0.38810078  0.48396780  0.14214798  1
  O  O386  1  0.55476745  0.48396780  0.10784777  1
  O  O387  1  0.77856594  0.84936551  0.39215437  1
  O  O388  1  0.38810078  0.68270162  0.64215012  1
  O  O389  1  0.61189927  0.31729837  0.35785416  1
  O  O390  1  0.77856594  0.31729837  0.89214588  1
  O  O391  1  0.55476745  0.68270162  0.60784992  1
  O  O392  1  0.61189927  0.84936551  0.35785416  1
  O  O393  1  0.38810078  0.48396780  0.64215012  1
  O  O394  1  0.55476745  0.48396780  0.60784992  1
  O  O395  1  0.77856594  0.84936551  0.89214588  1
  O  O396  1  0.72143412  0.01603496  0.14214798  1
  O  O397  1  0.27856592  0.98396502  0.85784567  1
  O  O398  1  0.44523259  0.98396502  0.39215437  1
  O  O399  1  0.88810080  0.01603496  0.10784777  1
  O  O400  1  0.27856592  0.18269886  0.85784567  1
  O  O401  1  0.72143412  0.15063447  0.14214798  1
  O  O402  1  0.88810080  0.15063447  0.10784777  1
  O  O403  1  0.44523259  0.18269886  0.39215437  1
  O  O404  1  0.72143412  0.01603496  0.64215012  1
  O  O405  1  0.27856592  0.98396502  0.35785416  1
  O  O406  1  0.44523259  0.98396502  0.89214588  1
  O  O407  1  0.88810080  0.01603496  0.60784992  1
  O  O408  1  0.27856592  0.18269886  0.35785416  1
  O  O409  1  0.72143412  0.15063447  0.64215012  1
  O  O410  1  0.88810080  0.15063447  0.60784992  1
  O  O411  1  0.44523259  0.18269886  0.89214588  1
  O  O412  1  0.72143412  0.34936829  0.14214798  1
  O  O413  1  0.27856592  0.65063169  0.85784567  1
  O  O414  1  0.44523259  0.65063169  0.39215437  1
  O  O415  1  0.88810080  0.34936829  0.10784777  1
  O  O416  1  0.27856592  0.51603218  0.85784567  1
  O  O417  1  0.72143412  0.81730113  0.14214798  1
  O  O418  1  0.88810080  0.81730113  0.10784777  1
  O  O419  1  0.44523259  0.51603218  0.39215437  1
  O  O420  1  0.72143412  0.34936829  0.64215012  1
  O  O421  1  0.27856592  0.65063169  0.35785416  1
  O  O422  1  0.44523259  0.65063169  0.89214588  1
  O  O423  1  0.88810080  0.34936829  0.60784992  1
  O  O424  1  0.27856592  0.51603218  0.35785416  1
  O  O425  1  0.72143412  0.81730113  0.64215012  1
  O  O426  1  0.88810080  0.81730113  0.60784992  1
  O  O427  1  0.44523259  0.51603218  0.89214588  1
  O  O428  1  0.72143412  0.68270162  0.14214798  1
  O  O429  1  0.27856592  0.31729837  0.85784567  1
  O  O430  1  0.44523259  0.31729837  0.39215437  1
  O  O431  1  0.88810080  0.68270162  0.10784777  1
  O  O432  1  0.27856592  0.84936551  0.85784567  1
  O  O433  1  0.72143412  0.48396780  0.14214798  1
  O  O434  1  0.88810080  0.48396780  0.10784777  1
  O  O435  1  0.44523259  0.84936551  0.39215437  1
  O  O436  1  0.72143412  0.68270162  0.64215012  1
  O  O437  1  0.27856592  0.31729837  0.35785416  1
  O  O438  1  0.44523259  0.31729837  0.89214588  1
  O  O439  1  0.88810080  0.68270162  0.60784992  1
  O  O440  1  0.27856592  0.84936551  0.35785416  1
  O  O441  1  0.72143412  0.48396780  0.64215012  1
  O  O442  1  0.88810080  0.48396780  0.60784992  1
  O  O443  1  0.44523259  0.84936551  0.89214588  1
